123-bus/123Bus/ieee123_VLN_Node.Txt

LINE-GROUND and LINE-LINE VOLTAGES BY BUS & NODE

Bus      Node    VLN (kV)   Angle      pu     Base kV    Node-Node   VLL (kV)  Angle      pu

1 ...... 1       2.4018 /_    0.0   0.99999     4.160        1-2       4.16 /_   30.0   0.99999
   -     2       2.4018 /_ -120.0   0.99999     4.160        2-3       4.16 /_  -90.0         1
   -     3       2.4018 /_  120.0   0.99999     4.160        3-1       4.16 /_  150.0   0.99999
150 .... 1            0 /_    0.0         0     4.160        1-2          0 /_    0.0         0
   -     2            0 /_    0.0         0     4.160        2-3          0 /_    0.0         0
   -     3            0 /_    0.0         0     4.160        3-1          0 /_    0.0         0
150R ... 1            0 /_    0.0         0     4.160        1-2          0 /_    0.0         0
   -     2            0 /_    0.0         0     4.160        2-3          0 /_    0.0         0
   -     3            0 /_    0.0         0     4.160        3-1          0 /_    0.0         0
149 .... 1       2.4018 /_    0.0   0.99999     4.160        1-2       4.16 /_   30.0   0.99999
   -     2       2.4018 /_ -120.0   0.99999     4.160        2-3       4.16 /_  -90.0         1
   -     3       2.4018 /_  120.0   0.99999     4.160        3-1       4.16 /_  150.0   0.99999
2 ...... 2       2.4012 /_ -120.0   0.99976     4.160
3 ...... 3       2.3978 /_  120.0   0.99835     4.160
7 ...... 1       2.3799 /_   -0.5   0.99088     4.160        1-2     4.1331 /_   29.8   0.99353
   -     2       2.3981 /_ -120.3   0.99848     4.160        2-3     4.1453 /_  -90.3   0.99645
   -     3       2.3884 /_  119.7   0.99444     4.160        3-1     4.1343 /_  149.6   0.99381
4 ...... 3       2.3965 /_  120.0   0.99782     4.160
5 ...... 3       2.3947 /_  119.9   0.99707     4.160
6 ...... 3       2.3932 /_  119.9   0.99641     4.160
8 ...... 1       2.3657 /_   -0.8   0.98498     4.160        1-2     4.1154 /_   29.6   0.98928
   -     2       2.3955 /_ -120.4    0.9974     4.160        2-3     4.1355 /_  -90.5    0.9941
   -     3       2.3796 /_  119.6   0.99076     4.160        3-1     4.1173 /_  149.3   0.98975
12 ..... 2       2.3948 /_ -120.4    0.9971     4.160
9 ...... 1       2.3621 /_   -0.8   0.98348     4.160
13 ..... 1        2.347 /_   -1.2    0.9772     4.160        1-2     4.0909 /_   29.4   0.98339
   -     2       2.3908 /_ -120.7   0.99542     4.160        2-3      4.121 /_  -90.9   0.99062
   -     3       2.3664 /_  119.3   0.98526     4.160        3-1     4.0929 /_  148.9   0.98387
9R ..... 1       2.3916 /_   -0.8   0.99577     4.160
14 ..... 1       2.3876 /_   -0.9    0.9941     4.160
34 ..... 3        2.364 /_  119.3   0.98427     4.160
18 ..... 1       2.3255 /_   -1.7   0.96825     4.160        1-2     4.0599 /_   29.1   0.97595
   -     2        2.381 /_ -120.9   0.99134     4.160        2-3     4.0931 /_  -91.1   0.98391
   -     3       2.3481 /_  119.2   0.97766     4.160        3-1     4.0657 /_  148.6   0.97734
11 ..... 1        2.386 /_   -0.9   0.99345     4.160
10 ..... 1       2.3868 /_   -0.9   0.99377     4.160
15 ..... 3        2.363 /_  119.3   0.98387     4.160
16 ..... 3       2.3606 /_  119.2   0.98287     4.160
17 ..... 3       2.3619 /_  119.3    0.9834     4.160
19 ..... 1       2.3223 /_   -1.7   0.96691     4.160
21 ..... 1       2.3243 /_   -1.7   0.96772     4.160        1-2     4.0578 /_   29.1   0.97544
   -     2       2.3811 /_ -120.9    0.9914     4.160        2-3     4.0912 /_  -91.1   0.98347
   -     3       2.3452 /_  119.2   0.97644     4.160        3-1     4.0627 /_  148.6   0.97661
20 ..... 1       2.3202 /_   -1.7   0.96605     4.160
22 ..... 2       2.3778 /_ -120.9   0.99003     4.160
23 ..... 1       2.3233 /_   -1.8   0.96732     4.160        1-2     4.0563 /_   29.1   0.97506
   -     2        2.382 /_ -120.9   0.99178     4.160        2-3     4.0903 /_  -91.1   0.98325
   -     3       2.3424 /_  119.2   0.97529     4.160        3-1     4.0602 /_  148.6   0.97601
24 ..... 3       2.3388 /_  119.1    0.9738     4.160
25 ..... 1       2.3217 /_   -1.9   0.96667     4.160        1-2     4.0544 /_   29.1   0.97463
   -     2       2.3831 /_ -120.9   0.99223     4.160        2-3     4.0896 /_  -91.2   0.98308
   -     3       2.3402 /_  119.2   0.97438     4.160        3-1     4.0581 /_  148.5    0.9755
25R .... 1       2.3943 /_   -1.9   0.99688     4.160
   -     3       2.3987 /_  119.2   0.99874     4.160        3-1     4.1722 /_  148.6    1.0029
26 ..... 1       2.3937 /_   -1.9   0.99663     4.160
   -     3       2.3976 /_  119.2   0.99824     4.160        3-1     4.1709 /_  148.6    1.0026
28 ..... 1       2.3209 /_   -1.9   0.96632     4.160        1-2     4.0536 /_   29.1   0.97441
   -     2       2.3837 /_ -120.9   0.99245     4.160        2-3     4.0893 /_  -91.2   0.98301
   -     3       2.3394 /_  119.2   0.97403     4.160        3-1     4.0572 /_  148.5   0.97529
27 ..... 1       2.3928 /_   -1.9   0.99627     4.160
   -     3       2.3975 /_  119.2   0.99821     4.160        3-1     4.1706 /_  148.6    1.0026
31 ..... 3       2.3961 /_  119.1   0.99765     4.160
33 ..... 1       2.3896 /_   -1.9   0.99495     4.160
29 ..... 1       2.3205 /_   -1.9   0.96617     4.160        1-2      4.053 /_   29.1   0.97427
   -     2        2.384 /_ -120.9    0.9926     4.160        2-3      4.089 /_  -91.2   0.98293
   -     3       2.3383 /_  119.2   0.97357     4.160        3-1     4.0562 /_  148.5   0.97506
30 ..... 1       2.3212 /_   -1.9   0.96644     4.160        1-2     4.0531 /_   29.1    0.9743
   -     2       2.3839 /_ -120.9   0.99255     4.160        2-3     4.0886 /_  -91.2   0.98285
   -     3       2.3372 /_  119.1    0.9731     4.160        3-1     4.0554 /_  148.5   0.97486
250 .... 1       2.3212 /_   -1.9   0.96644     4.160        1-2     4.0531 /_   29.1    0.9743
   -     2       2.3839 /_ -120.9   0.99255     4.160        2-3     4.0886 /_  -91.2   0.98285
   -     3       2.3372 /_  119.1    0.9731     4.160        3-1     4.0554 /_  148.5   0.97486
32 ..... 3       2.3952 /_  119.1   0.99725     4.160
35 ..... 1       2.3189 /_   -1.8   0.96549     4.160        1-2     4.0489 /_   29.0    0.9733
   -     2       2.3748 /_ -121.0   0.98879     4.160        2-3      4.085 /_  -91.1   0.98198
   -     3       2.3455 /_  119.1   0.97659     4.160        3-1     4.0582 /_  148.5   0.97553
36 ..... 1       2.3167 /_   -1.8   0.96458     4.160        1-2     4.0467 /_   29.0   0.97275
   -     2       2.3737 /_ -121.0   0.98829     4.160
40 ..... 1       2.3152 /_   -1.8   0.96397     4.160        1-2     4.0436 /_   29.0   0.97203
   -     2       2.3721 /_ -121.0   0.98766     4.160        2-3     4.0805 /_  -91.2   0.98089
   -     3        2.343 /_  119.1   0.97553     4.160        3-1     4.0526 /_  148.5   0.97419
37 ..... 1       2.3149 /_   -1.8   0.96382     4.160
38 ..... 2       2.3721 /_ -121.1   0.98763     4.160
39 ..... 2        2.371 /_ -121.1    0.9872     4.160
41 ..... 3       2.3419 /_  119.1   0.97509     4.160
42 ..... 1       2.3114 /_   -1.8   0.96238     4.160        1-2     4.0384 /_   28.9   0.97077
   -     2       2.3695 /_ -121.1   0.98655     4.160        2-3      4.076 /_  -91.2   0.97982
   -     3       2.3409 /_  119.1   0.97464     4.160        3-1     4.0474 /_  148.4   0.97294
43 ..... 2       2.3664 /_ -121.1   0.98525     4.160
44 ..... 1       2.3088 /_   -1.9   0.96129     4.160        1-2     4.0346 /_   28.9   0.96986
   -     2       2.3678 /_ -121.1   0.98584     4.160        2-3     4.0729 /_  -91.2   0.97907
   -     3       2.3389 /_  119.0   0.97381     4.160        3-1     4.0434 /_  148.4   0.97197
45 ..... 1       2.3075 /_   -1.9   0.96076     4.160
47 ..... 1       2.3063 /_   -1.9   0.96027     4.160        1-2     4.0305 /_   28.9   0.96886
   -     2       2.3652 /_ -121.2   0.98477     4.160        2-3      4.069 /_  -91.3   0.97811
   -     3       2.3365 /_  119.0   0.97281     4.160        3-1     4.0386 /_  148.3   0.97082
46 ..... 1       2.3065 /_   -1.9   0.96035     4.160
48 ..... 1       2.3057 /_   -1.9      0.96     4.160        1-2     4.0293 /_   28.9   0.96858
   -     2       2.3645 /_ -121.2   0.98449     4.160        2-3      4.068 /_  -91.3   0.97789
   -     3       2.3359 /_  119.0   0.97259     4.160        3-1     4.0376 /_  148.3   0.97057
49 ..... 1       2.3057 /_   -1.9   0.95998     4.160        1-2     4.0287 /_   28.9   0.96844
   -     2       2.3638 /_ -121.2   0.98419     4.160        2-3     4.0674 /_  -91.3   0.97775
   -     3       2.3357 /_  119.0   0.97248     4.160        3-1      4.037 /_  148.3   0.97043
50 ..... 1       2.3056 /_   -1.9   0.95996     4.160        1-2     4.0283 /_   28.9   0.96834
   -     2       2.3639 /_ -121.2   0.98422     4.160        2-3     4.0672 /_  -91.3   0.97769
   -     3       2.3348 /_  118.9   0.97213     4.160        3-1     4.0362 /_  148.3   0.97024
51 ..... 1       2.3052 /_   -1.9   0.95979     4.160        1-2      4.028 /_   28.9   0.96826
   -     2       2.3641 /_ -121.2    0.9843     4.160        2-3     4.0672 /_  -91.3    0.9777
   -     3       2.3348 /_  118.9   0.97211     4.160        3-1     4.0361 /_  148.3   0.97021
151 .... 1       2.3052 /_   -1.9   0.95979     4.160        1-2      4.028 /_   28.9   0.96826
   -     2       2.3641 /_ -121.2    0.9843     4.160        2-3     4.0672 /_  -91.3    0.9777
   -     3       2.3348 /_  118.9   0.97211     4.160        3-1     4.0361 /_  148.3   0.97021
52 ..... 1       2.3333 /_   -1.6   0.97147     4.160        1-2     4.0741 /_   29.1   0.97936
   -     2       2.3884 /_ -120.9   0.99443     4.160        2-3     4.1127 /_  -91.1   0.98864
   -     3       2.3593 /_  119.0   0.98232     4.160        3-1     4.0776 /_  148.5    0.9802
53 ..... 1       2.3271 /_   -1.8   0.96889     4.160        1-2     4.0663 /_   29.0   0.97747
   -     2       2.3869 /_ -121.0   0.99379     4.160        2-3     4.1086 /_  -91.3   0.98764
   -     3       2.3559 /_  118.9   0.98088     4.160        3-1     4.0703 /_  148.4   0.97843
54 ..... 1       2.3236 /_   -1.9   0.96745     4.160        1-2     4.0616 /_   28.9   0.97636
   -     2       2.3857 /_ -121.1   0.99329     4.160        2-3     4.1059 /_  -91.4   0.98701
   -     3       2.3537 /_  118.8      0.98     4.160        3-1     4.0658 /_  148.3   0.97736
55 ..... 1       2.3231 /_   -1.9   0.96724     4.160        1-2     4.0612 /_   28.9   0.97625
   -     2       2.3855 /_ -121.1   0.99321     4.160        2-3     4.1057 /_  -91.4   0.98694
   -     3       2.3539 /_  118.8   0.98008     4.160        3-1     4.0656 /_  148.2   0.97732
57 ..... 1       2.3166 /_   -2.2   0.96453     4.160        1-2     4.0484 /_   28.7   0.97316
   -     2       2.3796 /_ -121.3   0.99076     4.160        2-3     4.0959 /_  -91.6   0.98459
   -     3       2.3481 /_  118.6   0.97765     4.160        3-1     4.0566 /_  148.0   0.97515
56 ..... 1        2.323 /_   -1.9   0.96721     4.160        1-2     4.0611 /_   28.9   0.97622
   -     2        2.385 /_ -121.1   0.99303     4.160        2-3     4.1053 /_  -91.4   0.98686
   -     3       2.3541 /_  118.8   0.98016     4.160        3-1     4.0656 /_  148.3   0.97731
58 ..... 2        2.378 /_ -121.3    0.9901     4.160
60 ..... 1        2.302 /_   -2.9   0.95845     4.160        1-2     4.0208 /_   28.2   0.96655
   -     2        2.369 /_ -121.7   0.98637     4.160        2-3     4.0763 /_  -92.0   0.97987
   -     3       2.3348 /_  118.2    0.9721     4.160        3-1      4.037 /_  147.4   0.97043
59 ..... 2       2.3772 /_ -121.3   0.98977     4.160
61 ..... 1        2.302 /_   -2.9   0.95845     4.160        1-2     4.0208 /_   28.2   0.96655
   -     2        2.369 /_ -121.7   0.98637     4.160        2-3     4.0763 /_  -92.0   0.97987
   -     3       2.3348 /_  118.2    0.9721     4.160        3-1      4.037 /_  147.4   0.97043
62 ..... 1       2.3001 /_   -2.9   0.95768     4.160        1-2     4.0165 /_   28.2    0.9655
   -     2       2.3664 /_ -121.7   0.98525     4.160        2-3     4.0705 /_  -92.0   0.97848
   -     3       2.3298 /_  118.2   0.97005     4.160        3-1     4.0307 /_  147.4   0.96892
63 ..... 1       2.2987 /_   -2.9   0.95708     4.160        1-2     4.0135 /_   28.2   0.96478
   -     2       2.3643 /_ -121.7    0.9844     4.160        2-3      4.067 /_  -92.0   0.97764
   -     3       2.3274 /_  118.2   0.96903     4.160        3-1     4.0269 /_  147.4   0.96802
64 ..... 1        2.298 /_   -2.9   0.95679     4.160        1-2     4.0087 /_   28.2   0.96363
   -     2       2.3598 /_ -121.6   0.98254     4.160        2-3       4.06 /_  -92.0   0.97595
   -     3       2.3221 /_  118.1   0.96684     4.160        3-1     4.0207 /_  147.5   0.96651
65 ..... 1       2.2964 /_   -2.9   0.95614     4.160        1-2     4.0055 /_   28.2   0.96287
   -     2       2.3591 /_ -121.6   0.98224     4.160        2-3     4.0541 /_  -92.0   0.97454
   -     3       2.3149 /_  118.1   0.96381     4.160        3-1     4.0131 /_  147.5   0.96469
66 ..... 1        2.297 /_   -2.9   0.95638     4.160        1-2     4.0054 /_   28.2   0.96285
   -     2       2.3597 /_ -121.5   0.98248     4.160        2-3      4.052 /_  -92.1   0.97403
   -     3       2.3111 /_  118.1   0.96226     4.160        3-1     4.0108 /_  147.5   0.96414
67 ..... 1       2.4706 /_   -3.1    1.0287     4.160        1-2     4.2521 /_   27.5    1.0222
   -     2       2.4712 /_ -121.9    1.0289     4.160        2-3     4.2738 /_  -92.0    1.0274
   -     3       2.4616 /_  118.1    1.0249     4.160        3-1     4.2965 /_  147.5    1.0328
68 ..... 1       2.4669 /_   -3.2    1.0271     4.160
72 ..... 1       2.4715 /_   -3.2     1.029     4.160        1-2     4.2512 /_   27.4    1.0219
   -     2        2.469 /_ -122.0     1.028     4.160        2-3     4.2719 /_  -92.1    1.0269
   -     3       2.4611 /_  117.9    1.0247     4.160        3-1     4.2963 /_  147.4    1.0328
97 ..... 1       2.4686 /_   -3.2    1.0278     4.160        1-2     4.2493 /_   27.5    1.0215
   -     2       2.4705 /_ -121.9    1.0286     4.160        2-3      4.272 /_  -92.0    1.0269
   -     3       2.4603 /_  118.0    1.0244     4.160        3-1     4.2943 /_  147.5    1.0323
69 ..... 1       2.4626 /_   -3.2    1.0253     4.160
70 ..... 1       2.4596 /_   -3.2    1.0241     4.160
71 ..... 1       2.4579 /_   -3.2    1.0234     4.160
73 ..... 3       2.4559 /_  117.9    1.0225     4.160
76 ..... 1       2.4713 /_   -3.3    1.0289     4.160        1-2     4.2506 /_   27.3    1.0218
   -     2       2.4677 /_ -122.1    1.0275     4.160        2-3     4.2711 /_  -92.1    1.0267
   -     3       2.4625 /_  117.9    1.0253     4.160        3-1     4.2977 /_  147.4    1.0331
74 ..... 3       2.4514 /_  117.9    1.0207     4.160
75 ..... 3        2.449 /_  117.8    1.0196     4.160
77 ..... 1       2.4741 /_   -3.3    1.0301     4.160        1-2     4.2557 /_   27.2     1.023
   -     2       2.4705 /_ -122.1    1.0286     4.160        2-3     4.2752 /_  -92.2    1.0277
   -     3       2.4646 /_  117.8    1.0262     4.160        3-1     4.3016 /_  147.3     1.034
86 ..... 1       2.4692 /_   -3.3    1.0281     4.160        1-2     4.2481 /_   27.2    1.0212
   -     2       2.4635 /_ -122.2    1.0257     4.160        2-3     4.2675 /_  -92.2    1.0258
   -     3       2.4659 /_  117.8    1.0267     4.160        3-1     4.2987 /_  147.3    1.0333
78 ..... 1       2.4748 /_   -3.4    1.0304     4.160        1-2     4.2571 /_   27.2    1.0233
   -     2       2.4715 /_ -122.2     1.029     4.160        2-3     4.2765 /_  -92.2     1.028
   -     3        2.465 /_  117.8    1.0263     4.160        3-1     4.3026 /_  147.3    1.0343
79 ..... 1       2.4741 /_   -3.4    1.0301     4.160        1-2     4.2565 /_   27.2    1.0232
   -     2       2.4718 /_ -122.2    1.0291     4.160        2-3     4.2764 /_  -92.2     1.028
   -     3       2.4649 /_  117.8    1.0263     4.160        3-1     4.3024 /_  147.3    1.0342
80 ..... 1       2.4798 /_   -3.4    1.0325     4.160        1-2     4.2648 /_   27.2    1.0252
   -     2       2.4755 /_ -122.2    1.0307     4.160        2-3     4.2827 /_  -92.3    1.0295
   -     3        2.467 /_  117.7    1.0272     4.160        3-1     4.3077 /_  147.2    1.0355
81 ..... 1       2.4817 /_   -3.5    1.0333     4.160        1-2     4.2678 /_   27.1    1.0259
   -     2       2.4775 /_ -122.2    1.0315     4.160        2-3     4.2854 /_  -92.4    1.0302
   -     3       2.4675 /_  117.6    1.0274     4.160        3-1     4.3096 /_  147.2     1.036
82 ..... 1       2.4837 /_   -3.5    1.0341     4.160        1-2      4.272 /_   27.1    1.0269
   -     2       2.4805 /_ -122.3    1.0328     4.160        2-3     4.2897 /_  -92.4    1.0312
   -     3       2.4693 /_  117.6    1.0281     4.160        3-1     4.3131 /_  147.2    1.0368
84 ..... 3       2.4612 /_  117.6    1.0248     4.160
83 ..... 1       2.4865 /_   -3.5    1.0353     4.160        1-2     4.2769 /_   27.1    1.0281
   -     2       2.4832 /_ -122.3    1.0339     4.160        2-3      4.294 /_  -92.4    1.0322
   -     3       2.4713 /_  117.6    1.0289     4.160        3-1     4.3168 /_  147.1    1.0377
85 ..... 3       2.4583 /_  117.6    1.0235     4.160
87 ..... 1       2.4679 /_   -3.3    1.0275     4.160        1-2     4.2468 /_   27.1    1.0209
   -     2       2.4616 /_ -122.3    1.0249     4.160        2-3     4.2654 /_  -92.2    1.0253
   -     3       2.4672 /_  117.8    1.0272     4.160        3-1     4.2989 /_  147.3    1.0334
88 ..... 1       2.4678 /_   -3.4    1.0275     4.160
89 ..... 1       2.4669 /_   -3.3    1.0271     4.160        1-2     4.2465 /_   27.1    1.0208
   -     2       2.4609 /_ -122.4    1.0246     4.160        2-3      4.265 /_  -92.2    1.0252
   -     3       2.4682 /_  117.8    1.0276     4.160        3-1     4.2984 /_  147.2    1.0333
90 ..... 2       2.4607 /_ -122.4    1.0245     4.160
91 ..... 1       2.4664 /_   -3.3    1.0269     4.160        1-2     4.2458 /_   27.1    1.0206
   -     2       2.4601 /_ -122.4    1.0243     4.160        2-3     4.2648 /_  -92.2    1.0252
   -     3       2.4687 /_  117.8    1.0279     4.160        3-1     4.2981 /_  147.2    1.0332
92 ..... 3       2.4685 /_  117.7    1.0278     4.160
93 ..... 1       2.4657 /_   -3.3    1.0266     4.160        1-2      4.245 /_   27.1    1.0204
   -     2       2.4597 /_ -122.4    1.0241     4.160        2-3     4.2641 /_  -92.2     1.025
   -     3       2.4689 /_  117.8    1.0279     4.160        3-1     4.2979 /_  147.2    1.0331
94 ..... 1        2.464 /_   -3.3    1.0259     4.160
95 ..... 1       2.4656 /_   -3.3    1.0266     4.160        1-2     4.2447 /_   27.1    1.0204
   -     2       2.4588 /_ -122.4    1.0238     4.160        2-3     4.2634 /_  -92.2    1.0249
   -     3       2.4693 /_  117.8    1.0281     4.160        3-1     4.2979 /_  147.2    1.0331
96 ..... 2       2.4582 /_ -122.4    1.0235     4.160
98 ..... 1            0 /_    0.0         0     4.160        1-2          0 /_    0.0         0
   -     2            0 /_    0.0         0     4.160        2-3          0 /_    0.0         0
   -     3            0 /_    0.0         0     4.160        3-1          0 /_    0.0         0
99 ..... 1            0 /_    0.0         0     4.160        1-2          0 /_    0.0         0
   -     2            0 /_    0.0         0     4.160        2-3          0 /_    0.0         0
   -     3            0 /_    0.0         0     4.160        3-1          0 /_    0.0         0
100 .... 1            0 /_    0.0         0     4.160        1-2          0 /_    0.0         0
   -     2            0 /_    0.0         0     4.160        2-3          0 /_    0.0         0
   -     3            0 /_    0.0         0     4.160        3-1          0 /_    0.0         0
450 .... 1            0 /_    0.0         0     4.160        1-2          0 /_    0.0         0
   -     2            0 /_    0.0         0     4.160        2-3          0 /_    0.0         0
   -     3            0 /_    0.0         0     4.160        3-1          0 /_    0.0         0
197 .... 1       2.4686 /_   -3.2    1.0278     4.160        1-2     4.2493 /_   27.5    1.0215
   -     2       2.4705 /_ -121.9    1.0286     4.160        2-3      4.272 /_  -92.0    1.0269
   -     3       2.4603 /_  118.0    1.0244     4.160        3-1     4.2943 /_  147.5    1.0323
101 .... 1       2.4667 /_   -3.2     1.027     4.160        1-2     4.2464 /_   27.5    1.0208
   -     2       2.4699 /_ -121.9    1.0284     4.160        2-3     4.2702 /_  -92.0    1.0265
   -     3        2.459 /_  118.0    1.0238     4.160        3-1     4.2922 /_  147.5    1.0318
102 .... 3       2.4555 /_  118.0    1.0224     4.160
105 .... 1       2.4635 /_   -3.3    1.0257     4.160        1-2     4.2434 /_   27.4    1.0201
   -     2       2.4695 /_ -121.9    1.0282     4.160        2-3     4.2689 /_  -92.0    1.0262
   -     3       2.4596 /_  118.1    1.0241     4.160        3-1     4.2915 /_  147.4    1.0316
103 .... 3       2.4515 /_  118.0    1.0207     4.160
104 .... 3       2.4471 /_  117.9    1.0189     4.160
106 .... 2       2.4667 /_ -122.0     1.027     4.160
108 .... 1       2.4599 /_   -3.3    1.0242     4.160        1-2     4.2405 /_   27.4    1.0194
   -     2       2.4711 /_ -121.9    1.0288     4.160        2-3     4.2688 /_  -92.0    1.0261
   -     3       2.4593 /_  118.1    1.0239     4.160        3-1     4.2904 /_  147.4    1.0313
107 .... 2       2.4632 /_ -122.0    1.0256     4.160
109 .... 1         2.45 /_   -3.4    1.0201     4.160
300 .... 1       2.4599 /_   -3.3    1.0242     4.160        1-2     4.2405 /_   27.4    1.0194
   -     2       2.4711 /_ -121.9    1.0288     4.160        2-3     4.2688 /_  -92.0    1.0261
   -     3       2.4593 /_  118.1    1.0239     4.160        3-1     4.2904 /_  147.4    1.0313
110 .... 1       2.4453 /_   -3.4    1.0181     4.160
111 .... 1       2.4435 /_   -3.5    1.0174     4.160
112 .... 1       2.4437 /_   -3.4    1.0175     4.160
113 .... 1       2.4387 /_   -3.5    1.0154     4.160
114 .... 1       2.4377 /_   -3.5    1.0149     4.160
135 .... 1       2.3255 /_   -1.7   0.96825     4.160        1-2     4.0599 /_   29.1   0.97595
   -     2        2.381 /_ -120.9   0.99134     4.160        2-3     4.0931 /_  -91.1   0.98391
   -     3       2.3481 /_  119.2   0.97766     4.160        3-1     4.0657 /_  148.6   0.97734
152 .... 1        2.347 /_   -1.2    0.9772     4.160        1-2     4.0909 /_   29.4   0.98339
   -     2       2.3908 /_ -120.7   0.99542     4.160        2-3      4.121 /_  -90.9   0.99062
   -     3       2.3664 /_  119.3   0.98526     4.160        3-1     4.0929 /_  148.9   0.98387
160R ... 1       2.4746 /_   -2.9    1.0303     4.160        1-2     4.2585 /_   27.7    1.0237
   -     2       2.4727 /_ -121.7    1.0295     4.160        2-3     4.2799 /_  -91.8    1.0288
   -     3       2.4661 /_  118.2    1.0268     4.160        3-1     4.3016 /_  147.7     1.034
160 .... 1        2.302 /_   -2.9   0.95845     4.160        1-2     4.0208 /_   28.2   0.96655
   -     2        2.369 /_ -121.7   0.98637     4.160        2-3     4.0763 /_  -92.0   0.97987
   -     3       2.3348 /_  118.2    0.9721     4.160        3-1      4.037 /_  147.4   0.97043
61S .... 1        2.302 /_   -2.9   0.95845     4.160        1-2     4.0208 /_   28.2   0.96655
   -     2        2.369 /_ -121.7   0.98637     4.160        2-3     4.0763 /_  -92.0   0.97987
   -     3       2.3348 /_  118.2    0.9721     4.160        3-1      4.037 /_  147.4   0.97043
300_OPEN 1       2.3052 /_   -1.9   0.95979     4.160        1-2      4.028 /_   28.9   0.96826
   -     2       2.3641 /_ -121.2    0.9843     4.160        2-3     4.0672 /_  -91.3    0.9777
   -     3       2.3348 /_  118.9   0.97211     4.160        3-1     4.0361 /_  148.3   0.97021
94_OPEN  1       2.3236 /_   -1.9   0.96745     4.160
610 .... 1      0.26734 /_   -2.3   0.96466     0.480        1-2    0.46394 /_   28.2   0.96655
   -     2      0.26997 /_ -121.7   0.97416     0.480        2-3    0.47034 /_  -92.0   0.97987
   -     3      0.27104 /_  117.6   0.97802     0.480        3-1    0.46581 /_  147.4   0.97043
