123Bus/123Bus/ieee123_Power_elem_kVA.txt

CIRCUIT ELEMENT POWER FLOW

(Power Flow into element from indicated Bus)

Power Delivery Elements

  Bus    Phase     kW     +j   kvar         kVA         PF

ELEMENT = "Vsource.SOURCE"
1            1     -1334.9 +j   -526.9     1435.1       0.9302
1            2      -844.9 +j   -303.9      897.9       0.9410
1            3     -1065.0 +j   -356.5     1123.1       0.9483
   TERMINAL TOTAL  -3244.8 +j  -1187.2     3455.2       0.9391
1            0         0.0 +j      0.0        0.0       1.0000
1            0         0.0 +j      0.0        0.0       1.0000
1            0         0.0 +j      0.0        0.0       1.0000
   TERMINAL TOTAL      0.0 +j      0.0        0.0       1.0000

ELEMENT = "Transformer.REG1A"
150          1         0.0 +j      0.0        0.0       1.0000
150          2         0.0 +j      0.0        0.0       1.0000
150          3         0.0 +j      0.0        0.0       1.0000
150          0         0.0 +j      0.0        0.0       1.0000
   TERMINAL TOTAL      0.0 +j      0.0        0.0       1.0000
150R         1         0.0 +j      0.0        0.0       1.0000
150R         2         0.0 +j      0.0        0.0       1.0000
150R         3         0.0 +j      0.0        0.0       1.0000
150R         0         0.0 +j      0.0        0.0       1.0000
   TERMINAL TOTAL      0.0 +j      0.0        0.0       1.0000

ELEMENT = "Line.L115"
149          1        -0.0 +j     -0.0        0.0       1.0000
149          2        -0.0 +j     -0.0        0.0       1.0000
149          3        -0.0 +j      0.0        0.0      -1.0000
   TERMINAL TOTAL     -0.0 +j     -0.0        0.0       1.0000
1            1        -0.0 +j     -0.0        0.0       0.1400
1            2         0.0 +j     -0.0        0.0      -0.0771
1            3         0.0 +j     -0.0        0.0      -0.0637
   TERMINAL TOTAL      0.0 +j     -0.0        0.0      -0.0000

ELEMENT = "Line.L1"
1            2        20.0 +j     10.0       22.4       0.8944
   TERMINAL TOTAL     20.0 +j     10.0       22.4       0.8944
2            2       -20.0 +j    -10.0       22.4       0.8944
   TERMINAL TOTAL    -20.0 +j    -10.0       22.4       0.8944

ELEMENT = "Line.L2"
1            3       100.0 +j     50.1      111.8       0.8940
   TERMINAL TOTAL    100.0 +j     50.1      111.8       0.8940
3            3       -99.8 +j    -50.0      111.6       0.8943
   TERMINAL TOTAL    -99.8 +j    -50.0      111.6       0.8943

ELEMENT = "Line.L3"
1            1      1351.3 +j    506.9     1443.3       0.9363
1            2       881.3 +j    293.9      929.0       0.9487
1            3      1021.5 +j    306.4     1066.4       0.9578
   TERMINAL TOTAL   3254.1 +j   1107.1     3437.3       0.9467
7            1     -1343.2 +j   -491.0     1430.1       0.9392
7            2      -881.3 +j   -289.5      927.6       0.9500
7            3     -1017.1 +j   -300.3     1060.5       0.9591
   TERMINAL TOTAL  -3241.5 +j  -1080.8     3417.0       0.9487

ELEMENT = "Line.L4"
3            3        40.0 +j     20.0       44.7       0.8944
   TERMINAL TOTAL     40.0 +j     20.0       44.7       0.8944
4            3       -40.0 +j    -20.0       44.7       0.8944
   TERMINAL TOTAL    -40.0 +j    -20.0       44.7       0.8944

ELEMENT = "Line.L5"
3            3        59.8 +j     29.9       66.9       0.8942
   TERMINAL TOTAL     59.8 +j     29.9       66.9       0.8942
5            3       -59.8 +j    -29.9       66.8       0.8944
   TERMINAL TOTAL    -59.8 +j    -29.9       66.8       0.8944

ELEMENT = "Line.L6"
5            3        39.8 +j     19.9       44.5       0.8943
   TERMINAL TOTAL     39.8 +j     19.9       44.5       0.8943
6            3       -39.8 +j    -19.9       44.5       0.8944
   TERMINAL TOTAL    -39.8 +j    -19.9       44.5       0.8944

ELEMENT = "Line.L7"
7            1      1323.2 +j    481.0     1407.9       0.9398
7            2       881.3 +j    289.5      927.6       0.9500
7            3      1017.1 +j    300.3     1060.5       0.9591
   TERMINAL TOTAL   3221.5 +j   1070.8     3394.8       0.9490
8            1     -1317.9 +j   -470.8     1399.5       0.9417
8            2      -881.1 +j   -286.7      926.6       0.9509
8            3     -1014.2 +j   -296.1     1056.6       0.9599
   TERMINAL TOTAL  -3213.3 +j  -1053.6     3381.6       0.9502

ELEMENT = "Line.L8"
8            2        20.0 +j     10.0       22.4       0.8944
   TERMINAL TOTAL     20.0 +j     10.0       22.4       0.8944
12           2       -20.0 +j    -10.0       22.4       0.8944
   TERMINAL TOTAL    -20.0 +j    -10.0       22.4       0.8944

ELEMENT = "Line.L9"
8            1        99.7 +j     49.9      111.5       0.8940
   TERMINAL TOTAL     99.7 +j     49.9      111.5       0.8940
9            1       -99.5 +j    -49.8      111.3       0.8942
   TERMINAL TOTAL    -99.5 +j    -49.8      111.3       0.8942

ELEMENT = "Line.L10"
8            1      1218.3 +j    420.9     1288.9       0.9452
8            2       861.1 +j    276.7      904.5       0.9521
8            3      1014.2 +j    296.1     1056.6       0.9599
   TERMINAL TOTAL   3093.7 +j    993.6     3249.3       0.9521
13           1     -1211.8 +j   -408.2     1278.7       0.9477
13           2      -860.6 +j   -272.6      902.7       0.9533
13           3     -1010.1 +j   -289.4     1050.7       0.9613
   TERMINAL TOTAL  -3082.5 +j   -970.2     3231.6       0.9539

ELEMENT = "Line.L11"
9R           1        59.5 +j     29.8       66.6       0.8941
   TERMINAL TOTAL     59.5 +j     29.8       66.6       0.8941
14           1       -59.5 +j    -29.7       66.5       0.8944
   TERMINAL TOTAL    -59.5 +j    -29.7       66.5       0.8944

ELEMENT = "Line.L12"
13           3        99.0 +j     49.5      110.7       0.8942
   TERMINAL TOTAL     99.0 +j     49.5      110.7       0.8942
34           3       -98.9 +j    -49.5      110.6       0.8943
   TERMINAL TOTAL    -98.9 +j    -49.5      110.6       0.8943

ELEMENT = "Line.L13"
13           1       473.7 +j    257.5      539.2       0.8786
13           2       306.0 +j    208.3      370.2       0.8267
13           3       318.4 +j    185.3      368.4       0.8644
   TERMINAL TOTAL   1098.1 +j    651.0     1276.6       0.8602
18           1      -471.3 +j   -251.5      534.2       0.8823
18           2      -305.7 +j   -206.1      368.6       0.8291
18           3      -316.2 +j   -183.4      365.5       0.8650
   TERMINAL TOTAL  -1093.2 +j   -641.0     1267.3       0.8626

ELEMENT = "Line.L14"
14           1        39.6 +j     19.8       44.2       0.8943
   TERMINAL TOTAL     39.6 +j     19.8       44.2       0.8943
11           1       -39.5 +j    -19.8       44.2       0.8944
   TERMINAL TOTAL    -39.5 +j    -19.8       44.2       0.8944

ELEMENT = "Line.L15"
14           1        19.9 +j      9.9       22.2       0.8944
   TERMINAL TOTAL     19.9 +j      9.9       22.2       0.8944
10           1       -19.9 +j     -9.9       22.2       0.8944
   TERMINAL TOTAL    -19.9 +j     -9.9       22.2       0.8944

ELEMENT = "Line.L16"
15           3        40.0 +j     20.0       44.8       0.8943
   TERMINAL TOTAL     40.0 +j     20.0       44.8       0.8943
16           3       -40.0 +j    -20.0       44.7       0.8944
   TERMINAL TOTAL    -40.0 +j    -20.0       44.7       0.8944

ELEMENT = "Line.L17"
15           3        20.0 +j     10.0       22.4       0.8944
   TERMINAL TOTAL     20.0 +j     10.0       22.4       0.8944
17           3       -20.0 +j    -10.0       22.4       0.8944
   TERMINAL TOTAL    -20.0 +j    -10.0       22.4       0.8944

ELEMENT = "Line.L18"
18           1        78.8 +j     39.5       88.1       0.8942
   TERMINAL TOTAL     78.8 +j     39.5       88.1       0.8942
19           1       -78.7 +j    -39.4       88.0       0.8944
   TERMINAL TOTAL    -78.7 +j    -39.4       88.0       0.8944

ELEMENT = "Line.L19"
18           1       116.0 +j     58.5      129.9       0.8928
18           2        39.3 +j     19.7       44.0       0.8944
18           3       120.5 +j     60.4      134.7       0.8939
   TERMINAL TOTAL    275.8 +j    138.6      308.6       0.8935
21           1      -116.0 +j    -58.4      129.8       0.8932
21           2       -39.3 +j    -19.7       44.0       0.8943
21           3      -120.3 +j    -60.3      134.6       0.8941
   TERMINAL TOTAL   -275.6 +j   -138.3      308.4       0.8938

ELEMENT = "Line.L20"
19           1        38.7 +j     19.4       43.3       0.8943
   TERMINAL TOTAL     38.7 +j     19.4       43.3       0.8943
20           1       -38.7 +j    -19.3       43.2       0.8944
   TERMINAL TOTAL    -38.7 +j    -19.3       43.2       0.8944

ELEMENT = "Line.L21"
21           2        39.3 +j     19.7       44.0       0.8942
   TERMINAL TOTAL     39.3 +j     19.7       44.0       0.8942
22           2       -39.3 +j    -19.6       43.9       0.8944
   TERMINAL TOTAL    -39.3 +j    -19.6       43.9       0.8944

ELEMENT = "Line.L22"
21           1       116.0 +j     58.4      129.8       0.8932
21           2         0.0 +j     -0.0        0.0      -0.0626
21           3       120.3 +j     60.3      134.6       0.8941
   TERMINAL TOTAL    236.3 +j    118.6      264.4       0.8937
23           1      -116.0 +j    -58.2      129.8       0.8936
23           2        -0.0 +j      0.0        0.0      -0.0629
23           3      -120.2 +j    -60.2      134.4       0.8943
   TERMINAL TOTAL   -236.2 +j   -118.4      264.2       0.8940

ELEMENT = "Line.L23"
23           3        40.1 +j     20.0       44.8       0.8942
   TERMINAL TOTAL     40.1 +j     20.0       44.8       0.8942
24           3       -40.0 +j    -20.0       44.7       0.8944
   TERMINAL TOTAL    -40.0 +j    -20.0       44.7       0.8944

ELEMENT = "Line.L24"
23           1       116.0 +j     58.2      129.8       0.8936
23           2         0.0 +j     -0.0        0.0      -0.0629
23           3        80.2 +j     40.1       89.6       0.8943
   TERMINAL TOTAL    196.1 +j     98.3      219.4       0.8939
25           1      -116.0 +j    -58.1      129.7       0.8941
25           2        -0.0 +j      0.0        0.0      -0.0631
25           3       -80.1 +j    -40.1       89.6       0.8943
   TERMINAL TOTAL   -196.1 +j    -98.2      219.3       0.8942

ELEMENT = "Line.L25"
25R          1        39.9 +j     20.0       44.6       0.8939
25R          3        40.0 +j     20.0       44.8       0.8943
   TERMINAL TOTAL     79.9 +j     40.0       89.4       0.8941
26           1       -39.9 +j    -20.0       44.6       0.8941
26           3       -40.0 +j    -20.0       44.8       0.8943
   TERMINAL TOTAL    -79.9 +j    -40.0       89.4       0.8942

ELEMENT = "Line.L26"
25           1        76.1 +j     38.1       85.1       0.8942
25           2         0.0 +j     -0.0        0.0      -0.0631
25           3        40.0 +j     20.0       44.8       0.8943
   TERMINAL TOTAL    116.1 +j     58.1      129.9       0.8942
28           1       -76.1 +j    -38.0       85.1       0.8944
28           2        -0.0 +j      0.0        0.0      -0.0631
28           3       -40.0 +j    -20.0       44.8       0.8942
   TERMINAL TOTAL   -116.1 +j    -58.1      129.8       0.8943

ELEMENT = "Line.L27"
26           1        39.9 +j     20.0       44.6       0.8941
26           3        -0.0 +j     -0.0        0.0       0.1560
   TERMINAL TOTAL     39.9 +j     20.0       44.6       0.8941
27           1       -39.9 +j    -20.0       44.6       0.8942
27           3        -0.0 +j      0.0        0.0      -0.4874
   TERMINAL TOTAL    -39.9 +j    -20.0       44.6       0.8942

ELEMENT = "Line.L28"
26           3        40.0 +j     20.0       44.8       0.8943
   TERMINAL TOTAL     40.0 +j     20.0       44.8       0.8943
31           3       -40.0 +j    -20.0       44.7       0.8944
   TERMINAL TOTAL    -40.0 +j    -20.0       44.7       0.8944

ELEMENT = "Line.L29"
27           1        39.9 +j     20.0       44.6       0.8942
   TERMINAL TOTAL     39.9 +j     20.0       44.6       0.8942
33           1       -39.8 +j    -19.9       44.5       0.8944
   TERMINAL TOTAL    -39.8 +j    -19.9       44.5       0.8944

ELEMENT = "Line.L30"
28           1        37.4 +j     18.7       41.8       0.8943
28           2         0.0 +j     -0.0        0.0      -0.0631
28           3        40.0 +j     20.0       44.8       0.8942
   TERMINAL TOTAL     77.4 +j     38.7       86.6       0.8943
29           1       -37.4 +j    -18.7       41.8       0.8945
29           2        -0.0 +j      0.0        0.0      -0.0632
29           3       -40.0 +j    -20.0       44.7       0.8943
   TERMINAL TOTAL    -77.4 +j    -38.7       86.5       0.8944

ELEMENT = "Line.L31"
29           1         0.0 +j     -0.0        0.0      -0.0709
29           2         0.0 +j     -0.0        0.0      -0.0632
29           3        40.0 +j     20.0       44.7       0.8943
   TERMINAL TOTAL     40.0 +j     20.0       44.7       0.8943
30           1        -0.0 +j      0.0        0.0      -0.0709
30           2        -0.0 +j      0.0        0.0      -0.0634
30           3       -40.0 +j    -20.0       44.7       0.8944
   TERMINAL TOTAL    -40.0 +j    -20.0       44.7       0.8945

ELEMENT = "Line.L32"
30           1         0.0 +j     -0.0        0.0      -0.0709
30           2         0.0 +j     -0.0        0.0      -0.0634
30           3        -0.0 +j     -0.0        0.0       0.1339
   TERMINAL TOTAL     -0.0 +j     -0.0        0.0       0.0000
250          1        -0.0 +j      0.0        0.0      -0.0499
250          2         0.0 +j     -0.0        0.0      -0.6522
250          3        -0.0 +j      0.0        0.0      -0.9620
   TERMINAL TOTAL     -0.0 +j      0.0        0.0      -0.2082

ELEMENT = "Line.L33"
31           3        20.0 +j     10.0       22.4       0.8944
   TERMINAL TOTAL     20.0 +j     10.0       22.4       0.8944
32           3       -20.0 +j    -10.0       22.4       0.8944
   TERMINAL TOTAL    -20.0 +j    -10.0       22.4       0.8944

ELEMENT = "Line.L34"
34           3        60.1 +j     30.1       67.2       0.8943
   TERMINAL TOTAL     60.1 +j     30.1       67.2       0.8943
15           3       -60.0 +j    -30.0       67.1       0.8943
   TERMINAL TOTAL    -60.0 +j    -30.0       67.1       0.8943

ELEMENT = "Line.L35"
35           1        37.3 +j     18.7       41.7       0.8942
35           2        39.8 +j     20.0       44.5       0.8940
   TERMINAL TOTAL     77.1 +j     38.6       86.2       0.8941
36           1       -37.2 +j    -18.6       41.6       0.8943
36           2       -39.8 +j    -19.9       44.5       0.8943
   TERMINAL TOTAL    -77.0 +j    -38.5       86.1       0.8943

ELEMENT = "Line.L36"
35           1       213.2 +j    135.9      252.8       0.8433
35           2       211.7 +j    143.7      255.9       0.8274
35           3       195.7 +j    122.7      230.9       0.8473
   TERMINAL TOTAL    620.5 +j    402.3      739.5       0.8391
40           1      -212.9 +j   -135.5      252.4       0.8436
40           2      -211.6 +j   -143.4      255.6       0.8278
40           3      -195.6 +j   -122.4      230.7       0.8477
   TERMINAL TOTAL   -620.1 +j   -401.3      738.6       0.8395

ELEMENT = "Line.L37"
36           1        37.2 +j     18.6       41.6       0.8943
   TERMINAL TOTAL     37.2 +j     18.6       41.6       0.8943
37           1       -37.2 +j    -18.6       41.6       0.8944
   TERMINAL TOTAL    -37.2 +j    -18.6       41.6       0.8944

ELEMENT = "Line.L38"
36           2        39.8 +j     19.9       44.5       0.8943
   TERMINAL TOTAL     39.8 +j     19.9       44.5       0.8943
38           2       -39.8 +j    -19.9       44.5       0.8944
   TERMINAL TOTAL    -39.8 +j    -19.9       44.5       0.8944

ELEMENT = "Line.L39"
38           2        20.0 +j     10.0       22.4       0.8944
   TERMINAL TOTAL     20.0 +j     10.0       22.4       0.8944
39           2       -20.0 +j    -10.0       22.4       0.8944
   TERMINAL TOTAL    -20.0 +j    -10.0       22.4       0.8944

ELEMENT = "Line.L40"
40           3        20.0 +j     10.0       22.4       0.8944
   TERMINAL TOTAL     20.0 +j     10.0       22.4       0.8944
41           3       -20.0 +j    -10.0       22.4       0.8944
   TERMINAL TOTAL    -20.0 +j    -10.0       22.4       0.8944

ELEMENT = "Line.L41"
40           1       212.9 +j    135.5      252.4       0.8436
40           2       211.6 +j    143.4      255.6       0.8278
40           3       175.5 +j    112.4      208.4       0.8422
   TERMINAL TOTAL    600.1 +j    391.3      716.4       0.8377
42           1      -212.7 +j   -135.2      252.0       0.8439
42           2      -211.5 +j   -143.0      255.3       0.8283
42           3      -175.5 +j   -112.1      208.2       0.8426
   TERMINAL TOTAL   -599.6 +j   -390.3      715.5       0.8381

ELEMENT = "Line.L42"
42           2        38.9 +j     19.5       43.5       0.8942
   TERMINAL TOTAL     38.9 +j     19.5       43.5       0.8942
43           2       -38.9 +j    -19.4       43.5       0.8944
   TERMINAL TOTAL    -38.9 +j    -19.4       43.5       0.8944

ELEMENT = "Line.L43"
42           1       192.7 +j    125.2      229.8       0.8386
42           2       172.5 +j    123.5      212.2       0.8131
42           3       175.5 +j    112.1      208.2       0.8426
   TERMINAL TOTAL    540.7 +j    360.9      650.0       0.8318
44           1      -192.5 +j   -124.9      229.5       0.8389
44           2      -172.5 +j   -123.4      212.0       0.8134
44           3      -175.4 +j   -112.0      208.1       0.8429
   TERMINAL TOTAL   -540.4 +j   -360.3      649.5       0.8320

ELEMENT = "Line.L44"
44           1        39.3 +j     19.6       43.9       0.8943
   TERMINAL TOTAL     39.3 +j     19.6       43.9       0.8943
45           1       -39.2 +j    -19.6       43.9       0.8944
   TERMINAL TOTAL    -39.2 +j    -19.6       43.9       0.8944

ELEMENT = "Line.L45"
44           1       153.3 +j    105.3      186.0       0.8242
44           2       172.5 +j    123.4      212.0       0.8134
44           3       175.4 +j    112.0      208.1       0.8429
   TERMINAL TOTAL    501.1 +j    340.6      605.9       0.8270
47           1      -153.1 +j   -105.1      185.8       0.8244
47           2      -172.4 +j   -123.1      211.8       0.8137
47           3      -175.3 +j   -111.7      207.8       0.8433
   TERMINAL TOTAL   -500.8 +j   -340.0      605.3       0.8274

ELEMENT = "Line.L46"
45           1        20.0 +j     10.0       22.4       0.8944
   TERMINAL TOTAL     20.0 +j     10.0       22.4       0.8944
46           1       -20.0 +j    -10.0       22.4       0.8944
   TERMINAL TOTAL    -20.0 +j    -10.0       22.4       0.8944

ELEMENT = "Line.L47"
47           1        64.5 +j     46.1       79.3       0.8137
47           2        67.9 +j     48.5       83.4       0.8137
47           3        66.2 +j     47.3       81.4       0.8136
   TERMINAL TOTAL    198.6 +j    141.9      244.1       0.8137
48           1       -64.5 +j    -46.1       79.3       0.8137
48           2       -67.8 +j    -48.5       83.4       0.8137
48           3       -66.2 +j    -47.3       81.4       0.8137
   TERMINAL TOTAL   -198.6 +j   -141.8      244.0       0.8137

ELEMENT = "Line.L48"
47           1        55.0 +j     35.0       65.2       0.8436
47           2        70.0 +j     50.0       86.1       0.8137
47           3        75.0 +j     40.1       85.0       0.8821
   TERMINAL TOTAL    200.1 +j    125.1      236.0       0.8479
49           1       -55.0 +j    -35.0       65.2       0.8436
49           2       -70.0 +j    -50.0       86.0       0.8138
49           3       -75.0 +j    -40.0       85.0       0.8823
   TERMINAL TOTAL   -200.0 +j   -125.0      235.9       0.8480

ELEMENT = "Line.L49"
49           1        20.0 +j     10.0       22.4       0.8944
49           2        -0.0 +j     -0.0        0.0       0.3751
49           3        40.0 +j     20.0       44.7       0.8944
   TERMINAL TOTAL     60.0 +j     30.0       67.1       0.8944
50           1       -20.0 +j    -10.0       22.4       0.8944
50           2         0.0 +j      0.0        0.0       0.3749
50           3       -40.0 +j    -20.0       44.7       0.8945
   TERMINAL TOTAL    -60.0 +j    -30.0       67.1       0.8945

ELEMENT = "Line.L50"
50           1        20.0 +j     10.0       22.4       0.8944
50           2        -0.0 +j     -0.0        0.0       0.3749
50           3         0.0 +j     -0.0        0.0      -0.1445
   TERMINAL TOTAL     20.0 +j     10.0       22.4       0.8946
51           1       -20.0 +j    -10.0       22.4       0.8945
51           2         0.0 +j      0.0        0.0       0.3749
51           3        -0.0 +j      0.0        0.0      -0.1446
   TERMINAL TOTAL    -20.0 +j    -10.0       22.4       0.8946

ELEMENT = "Line.L51"
51           1         0.0 +j     -0.0        0.0      -0.3035
51           2        -0.0 +j     -0.0        0.0       0.3749
51           3         0.0 +j     -0.0        0.0      -0.1446
   TERMINAL TOTAL     -0.0 +j     -0.0        0.0       0.0000
151          1         0.0 +j      0.0        0.0       1.0000
151          2         0.0 +j     -0.0        0.0      -1.0000
151          3         0.0 +j     -0.0        0.0      -1.0000
   TERMINAL TOTAL      0.0 +j     -0.0        0.0      -1.0000

ELEMENT = "Line.L52"
52           1       694.8 +j    125.0      705.9       0.9842
52           2       554.3 +j     61.9      557.7       0.9938
52           3       591.2 +j     52.0      593.4       0.9962
   TERMINAL TOTAL   1840.2 +j    238.8     1855.6       0.9917
53           1      -693.3 +j   -122.5      704.0       0.9848
53           2      -554.0 +j    -60.7      557.4       0.9941
53           3      -590.4 +j    -50.6      592.6       0.9963
   TERMINAL TOTAL  -1837.8 +j   -233.7     1852.6       0.9920

ELEMENT = "Line.L53"
53           1       653.3 +j    102.5      661.3       0.9879
53           2       554.0 +j     60.7      557.4       0.9941
53           3       590.4 +j     50.6      592.6       0.9963
   TERMINAL TOTAL   1797.8 +j    213.7     1810.4       0.9930
54           1      -652.5 +j   -101.1      660.3       0.9882
54           2      -553.8 +j    -59.9      557.1       0.9942
54           3      -589.9 +j    -49.7      592.0       0.9965
   TERMINAL TOTAL  -1796.3 +j   -210.7     1808.6       0.9932

ELEMENT = "Line.L54"
54           1        18.7 +j      9.4       21.0       0.8945
54           2        20.0 +j     10.0       22.4       0.8944
54           3         0.0 +j     -0.0        0.0      -0.0675
   TERMINAL TOTAL     38.7 +j     19.4       43.3       0.8945
55           1       -18.7 +j     -9.4       20.9       0.8945
55           2       -20.0 +j    -10.0       22.4       0.8944
55           3        -0.0 +j      0.0        0.0      -0.0675
   TERMINAL TOTAL    -38.7 +j    -19.4       43.3       0.8944

ELEMENT = "Line.L55"
54           1       633.8 +j     91.8      640.4       0.9897
54           2       533.8 +j     49.9      536.2       0.9957
54           3       589.9 +j     49.7      592.0       0.9965
   TERMINAL TOTAL   1757.6 +j    191.4     1768.0       0.9941
57           1      -632.3 +j    -88.2      638.5       0.9904
57           2      -532.7 +j    -47.9      534.8       0.9960
57           3      -588.7 +j    -47.4      590.6       0.9968
   TERMINAL TOTAL  -1753.7 +j   -183.5     1763.3       0.9946

ELEMENT = "Line.L56"
55           1        -0.0 +j     -0.0        0.0       0.1471
55           2        20.0 +j     10.0       22.4       0.8944
55           3         0.0 +j     -0.0        0.0      -0.0675
   TERMINAL TOTAL     20.0 +j     10.0       22.4       0.8945
56           1        -0.0 +j     -0.0        0.0       0.4767
56           2       -20.0 +j    -10.0       22.4       0.8944
56           3        -0.0 +j     -0.0        0.0       0.9992
   TERMINAL TOTAL    -20.0 +j    -10.0       22.4       0.8944

ELEMENT = "Line.L57"
57           2        39.8 +j     19.9       44.6       0.8943
   TERMINAL TOTAL     39.8 +j     19.9       44.6       0.8943
58           2       -39.8 +j    -19.9       44.5       0.8944
   TERMINAL TOTAL    -39.8 +j    -19.9       44.5       0.8944

ELEMENT = "Line.L58"
57           1       632.3 +j     88.2      638.5       0.9904
57           2       492.8 +j     28.0      493.6       0.9984
57           3       588.7 +j     47.4      590.6       0.9968
   TERMINAL TOTAL   1713.9 +j    163.5     1721.6       0.9955
60           1      -629.4 +j    -80.2      634.4       0.9920
60           2      -490.8 +j    -24.5      491.4       0.9988
60           3      -585.7 +j    -42.6      587.3       0.9974
   TERMINAL TOTAL  -1705.9 +j   -147.2     1712.2       0.9963

ELEMENT = "Line.L59"
58           2        20.0 +j     10.0       22.4       0.8944
   TERMINAL TOTAL     20.0 +j     10.0       22.4       0.8944
59           2       -20.0 +j    -10.0       22.4       0.8944
   TERMINAL TOTAL    -20.0 +j    -10.0       22.4       0.8944

ELEMENT = "Line.L60"
60           1        -0.0 +j     -0.0        0.0       0.0855
60           2         0.0 +j     -0.0        0.0      -0.1402
60           3        -0.0 +j     -0.0        0.0       0.0586
   TERMINAL TOTAL      0.0 +j     -0.0        0.0      -0.0002
61           1        -0.0 +j     -0.0        0.0       0.0290
61           2        -0.0 +j     -0.0        0.0       0.0340
61           3        -0.0 +j     -0.0        0.0       0.0271
   TERMINAL TOTAL     -0.0 +j     -0.0        0.0       0.0301

ELEMENT = "Line.L61"
60           1        82.2 +j     63.4      103.8       0.7921
60           2       107.6 +j     58.3      122.3       0.8793
60           3       169.5 +j     80.7      187.7       0.9028
   TERMINAL TOTAL    359.2 +j    202.4      412.3       0.8713
62           1       -82.1 +j    -63.3      103.7       0.7920
62           2      -107.4 +j    -58.3      122.2       0.8790
62           3      -169.1 +j    -80.5      187.3       0.9029
   TERMINAL TOTAL   -358.7 +j   -202.1      411.7       0.8712

ELEMENT = "Line.L62"
62           1        82.1 +j     63.3      103.7       0.7920
62           2       107.4 +j     58.3      122.2       0.8790
62           3       131.4 +j     61.7      145.2       0.9052
   TERMINAL TOTAL    321.0 +j    183.3      369.6       0.8684
63           1       -82.1 +j    -63.3      103.7       0.7918
63           2      -107.3 +j    -58.3      122.1       0.8789
63           3      -131.3 +j    -61.6      145.0       0.9053
   TERMINAL TOTAL   -320.7 +j   -183.2      369.3       0.8683

ELEMENT = "Line.L63"
63           1        42.1 +j     43.3       60.4       0.6968
63           2       107.3 +j     58.3      122.1       0.8789
63           3       131.3 +j     61.6      145.0       0.9053
   TERMINAL TOTAL    280.7 +j    163.2      324.7       0.8645
64           1       -42.0 +j    -43.3       60.4       0.6964
64           2      -107.1 +j    -58.2      121.9       0.8785
64           3      -131.0 +j    -61.4      144.7       0.9055
   TERMINAL TOTAL   -280.1 +j   -163.0      324.1       0.8643

ELEMENT = "Line.L64"
64           1        42.0 +j     43.3       60.4       0.6964
64           2        33.3 +j     23.8       41.0       0.8135
64           3       131.0 +j     61.4      144.7       0.9055
   TERMINAL TOTAL    206.4 +j    128.6      243.2       0.8488
65           1       -42.0 +j    -43.3       60.4       0.6963
65           2       -33.3 +j    -23.9       41.0       0.8127
65           3      -130.6 +j    -61.2      144.3       0.9054
   TERMINAL TOTAL   -206.0 +j   -128.4      242.7       0.8485

ELEMENT = "Line.L65"
65           1         0.0 +j     -0.0        0.0      -0.0002
65           2        -0.0 +j     -0.0        0.0       0.0002
65           3        75.1 +j     35.0       82.9       0.9063
   TERMINAL TOTAL     75.1 +j     35.0       82.9       0.9065
66           1        -0.0 +j     -0.0        0.0       0.8590
66           2        -0.0 +j      0.0        0.0      -0.6142
66           3       -75.0 +j    -35.0       82.8       0.9062
   TERMINAL TOTAL    -75.0 +j    -35.0       82.8       0.9062

ELEMENT = "Line.L66"
67           1       120.4 +j     60.4      134.7       0.8939
   TERMINAL TOTAL    120.4 +j     60.4      134.7       0.8939
68           1      -120.2 +j    -60.2      134.5       0.8941
   TERMINAL TOTAL   -120.2 +j    -60.2      134.5       0.8941

ELEMENT = "Line.L67"
67           1       263.1 +j   -128.2      292.6      -0.8990
67           2       302.8 +j    -75.1      312.0      -0.9706
67           3       315.0 +j    -89.4      327.5      -0.9620
   TERMINAL TOTAL    880.9 +j   -292.7      928.2      -0.9490
72           1      -262.9 +j    128.7      292.7      -0.8982
72           2      -302.4 +j     75.6      311.7      -0.9702
72           3      -314.8 +j     90.0      327.4      -0.9615
   TERMINAL TOTAL   -880.1 +j    294.3      928.0      -0.9484

ELEMENT = "Line.L68"
67           1       142.9 +j     72.4      160.2       0.8919
67           2        80.1 +j     40.2       89.6       0.8937
67           3       100.4 +j     50.4      112.3       0.8938
   TERMINAL TOTAL    323.3 +j    163.0      362.1       0.8930
97           1      -142.8 +j    -72.3      160.0       0.8923
97           2       -80.1 +j    -40.2       89.6       0.8938
97           3      -100.3 +j    -50.3      112.2       0.8939
   TERMINAL TOTAL   -323.2 +j   -162.8      361.9       0.8931

ELEMENT = "Line.L69"
68           1       100.2 +j     50.2      112.1       0.8940
   TERMINAL TOTAL    100.2 +j     50.2      112.1       0.8940
69           1      -100.1 +j    -50.1      111.9       0.8943
   TERMINAL TOTAL   -100.1 +j    -50.1      111.9       0.8943

ELEMENT = "Line.L70"
69           1        60.1 +j     30.1       67.2       0.8942
   TERMINAL TOTAL     60.1 +j     30.1       67.2       0.8942
70           1       -60.0 +j    -30.0       67.1       0.8944
   TERMINAL TOTAL    -60.0 +j    -30.0       67.1       0.8944

...